test/data/dist/3Bus_example_VLN_Node.Txt

LINE-GROUND and LINE-LINE VOLTAGES BY BUS & NODE

Bus       Node    VLN (kV)   Angle      pu     Base kV    Node-Node   VLL (kV)  Angle      pu

SOURCEBUS 1      0.22999 /_    0.0    0.9959     0.400        1-2    0.39836 /_   30.0    0.9959
   -      2      0.22999 /_ -120.0    0.9959     0.400        2-3    0.39836 /_  -90.0    0.9959
   -      3      0.22999 /_  120.0    0.9959     0.400        3-1    0.39836 /_  150.0    0.9959
PRIMARY . 1      0.22654 /_   -0.2   0.98094     0.400        1-2    0.39384 /_   30.0    0.9846
   -      2      0.22848 /_ -120.1   0.98936     0.400        2-3    0.39481 /_  -90.0   0.98702
   -      3      0.22795 /_  120.1   0.98704     0.400        3-1    0.39428 /_  149.8   0.98571
LOADBUS . 1      0.22252 /_   -0.5   0.96355     0.400        1-2    0.38859 /_   29.9   0.97148
   -      2      0.22673 /_ -120.2   0.98176     0.400        2-3    0.39068 /_  -90.1   0.97671
   -      3      0.22558 /_  120.3   0.97678     0.400        3-1    0.38954 /_  149.7   0.97385
